Version 4
SHEET 1 2144 820
WIRE 48 -336 -80 -336
WIRE 240 -336 48 -336
WIRE 272 -336 240 -336
WIRE 432 -336 352 -336
WIRE -496 -304 -624 -304
WIRE -80 -288 -80 -336
WIRE 48 -288 48 -336
WIRE -624 -272 -624 -304
WIRE -624 -208 -624 -272
WIRE -496 -208 -496 -224
WIRE -416 -208 -496 -208
WIRE -384 -208 -416 -208
WIRE -496 -192 -496 -208
WIRE -384 -192 -384 -208
WIRE 240 -176 240 -336
WIRE 272 -176 240 -176
WIRE 432 -176 432 -336
WIRE 432 -176 336 -176
WIRE -80 -160 -80 -208
WIRE 48 -160 48 -208
WIRE -624 -96 -624 -128
WIRE -496 -96 -496 -112
WIRE -496 -96 -624 -96
WIRE -384 -96 -384 -128
WIRE -384 -96 -496 -96
WIRE -624 -80 -624 -96
WIRE -80 -64 -80 -96
WIRE 48 -64 48 -96
WIRE -256 32 -256 -32
WIRE 48 48 48 16
WIRE 304 48 304 16
WIRE 400 64 336 64
WIRE 1440 80 1440 16
WIRE -672 96 -704 96
WIRE -624 96 -672 96
WIRE -512 96 -560 96
WIRE -384 96 -432 96
WIRE -304 96 -384 96
WIRE 304 112 304 48
WIRE 336 112 336 64
WIRE 240 128 240 -176
WIRE 272 128 240 128
WIRE 432 144 432 -176
WIRE 432 144 336 144
WIRE 480 144 464 144
WIRE 688 144 624 144
WIRE 768 144 688 144
WIRE 816 144 768 144
WIRE 960 144 896 144
WIRE 1088 144 1040 144
WIRE 1184 144 1088 144
WIRE 1296 144 1248 144
WIRE 1392 144 1296 144
WIRE -256 160 -256 128
WIRE -144 160 -256 160
WIRE 48 160 48 128
WIRE 48 160 -80 160
WIRE 272 160 48 160
WIRE 1296 176 1296 144
WIRE 688 192 688 144
WIRE 768 192 768 144
WIRE 1088 192 1088 144
WIRE -384 208 -384 96
WIRE -256 208 -256 160
WIRE 400 208 400 64
WIRE 1440 208 1440 176
WIRE 1584 208 1440 208
WIRE 1696 208 1648 208
WIRE 1808 208 1696 208
WIRE 48 240 48 160
WIRE 304 240 304 176
WIRE 1808 240 1808 208
WIRE 1440 256 1440 208
WIRE -704 272 -704 96
WIRE 1696 272 1696 208
WIRE 688 304 688 256
WIRE 736 304 688 304
WIRE 768 304 768 256
WIRE 768 304 736 304
WIRE 336 320 336 176
WIRE 400 320 400 272
WIRE 400 320 336 320
WIRE 1088 320 1088 256
WIRE 1296 320 1296 256
WIRE -384 336 -384 288
WIRE -256 336 -256 288
WIRE 48 352 48 304
WIRE 1808 352 1808 320
WIRE 2048 352 1808 352
WIRE 736 368 736 304
WIRE 1808 368 1808 352
WIRE 2048 368 2048 352
WIRE 1440 384 1440 336
WIRE -704 400 -704 352
WIRE 1696 416 1696 352
WIRE 1808 496 1808 448
WIRE 2048 496 2048 448
FLAG -80 -64 0
FLAG 48 -64 0
FLAG -384 336 0
FLAG -256 336 0
FLAG 48 352 0
FLAG -704 400 0
FLAG -624 -80 0
FLAG -624 -272 p+
FLAG -256 -32 p+
FLAG -416 -208 45
FLAG 48 16 45
FLAG 1440 384 0
FLAG 1440 16 p+
FLAG 736 368 0
FLAG 1088 320 0
FLAG 1296 320 0
FLAG 1696 416 0
FLAG 1808 496 0
FLAG 2048 496 0
FLAG 304 240 0
FLAG 304 48 p+
FLAG -672 96 in
FLAG 464 144 in
SYMBOL voltage -704 256 R0
WINDOW 123 24 132 Left 0
WINDOW 39 0 0 Left 0
SYMATTR Value2 AC 1
SYMATTR InstName V1
SYMATTR Value SINE(0 1 500)
SYMBOL cap 336 -192 R90
WINDOW 0 0 32 VBottom 0
WINDOW 3 32 32 VTop 0
SYMATTR InstName C1
SYMATTR Value 100p
SYMBOL cap -80 144 R90
WINDOW 0 0 32 VBottom 0
WINDOW 3 32 32 VTop 0
SYMATTR InstName C2
SYMATTR Value 1µ
SYMBOL cap 64 304 R180
WINDOW 0 24 64 Left 0
WINDOW 3 24 8 Left 0
SYMATTR InstName C3
SYMATTR Value 1n
SYMBOL res 32 32 R0
SYMATTR InstName R1
SYMATTR Value 100k
SYMBOL res -272 192 R0
SYMATTR InstName R2
SYMATTR Value 1k
SYMBOL res -400 192 R0
SYMATTR InstName R3
SYMATTR Value 1000k
SYMBOL res -416 80 R90
WINDOW 0 0 56 VBottom 0
WINDOW 3 32 56 VTop 0
SYMATTR InstName R4
SYMATTR Value 1k
SYMBOL cap -560 80 R90
WINDOW 0 0 32 VBottom 0
WINDOW 3 32 32 VTop 0
SYMATTR InstName C4
SYMATTR Value 0.022µ
SYMBOL njf -304 32 R0
SYMATTR InstName J1
SYMATTR Value 2N5484
SYMBOL res 368 -352 R90
WINDOW 0 0 56 VBottom 0
WINDOW 3 32 56 VTop 0
SYMATTR InstName R5
SYMATTR Value 15k
SYMBOL res -96 -304 R0
SYMATTR InstName R6
SYMATTR Value 47
SYMBOL res 32 -304 R0
SYMATTR InstName R7
SYMATTR Value 560
SYMBOL cap 32 -160 R0
SYMATTR InstName C5
SYMATTR Value 4.7µ
SYMBOL cap -96 -160 R0
SYMATTR InstName C6
SYMATTR Value 2.2µ
SYMBOL voltage -624 -224 R0
WINDOW 123 0 0 Left 0
WINDOW 39 0 0 Left 0
SYMATTR InstName V3
SYMATTR Value 9
SYMBOL res -512 -320 R0
SYMATTR InstName R8
SYMATTR Value 20k
SYMBOL res -512 -208 R0
SYMATTR InstName R9
SYMATTR Value 20k
SYMBOL cap -400 -192 R0
SYMATTR InstName C7
SYMATTR Value 100µ
SYMBOL cap 544 128 R90
WINDOW 0 0 32 VBottom 0
WINDOW 3 32 32 VTop 0
SYMATTR InstName C8
SYMATTR Value 4.7µ
SYMBOL res 640 128 R90
WINDOW 0 0 56 VBottom 0
WINDOW 3 32 56 VTop 0
SYMATTR InstName R10
SYMATTR Value 1k
SYMBOL diode 672 192 R0
SYMATTR InstName D1
SYMATTR Value 1N914
SYMBOL diode 784 256 R180
WINDOW 0 24 72 Left 0
WINDOW 3 24 0 Left 0
SYMATTR InstName D2
SYMATTR Value 1N914
SYMBOL res 912 128 R90
WINDOW 0 0 56 VBottom 0
WINDOW 3 32 56 VTop 0
SYMATTR InstName R11
SYMATTR Value 10k
SYMBOL res 1056 128 R90
WINDOW 0 0 56 VBottom 0
WINDOW 3 32 56 VTop 0
SYMATTR InstName R12
SYMATTR Value 1.5k
SYMBOL cap 1072 192 R0
SYMATTR InstName C9
SYMATTR Value 3.3n
SYMBOL cap 1248 128 R90
WINDOW 0 0 32 VBottom 0
WINDOW 3 32 32 VTop 0
SYMATTR InstName C10
SYMATTR Value 0.022µ
SYMBOL res 1280 160 R0
SYMATTR InstName R13
SYMATTR Value 1000k
SYMBOL res 1424 240 R0
SYMATTR InstName R14
SYMATTR Value 1k
SYMBOL njf 1392 80 R0
SYMATTR InstName J2
SYMATTR Value BF245
SYMBOL cap 1648 192 R90
WINDOW 0 0 32 VBottom 0
WINDOW 3 32 32 VTop 0
SYMATTR InstName C11
SYMATTR Value 10µ
SYMBOL res 1680 256 R0
SYMATTR InstName R15
SYMATTR Value 10k
SYMBOL res 1792 224 R0
SYMATTR InstName R17
SYMATTR Value 50k
SYMBOL res 1792 352 R0
SYMATTR InstName R18
SYMATTR Value 50k
SYMBOL res 2032 352 R0
SYMATTR InstName R19
SYMATTR Value 1000k
SYMBOL cap 384 208 R0
SYMATTR InstName C12
SYMATTR Value 30p
SYMBOL Opamps\\LM308 304 80 R0
SYMATTR InstName U1
TEXT -736 520 Left 0 !;tran 0 0.11 0.1 0.00001
TEXT -304 544 Left 0 !.inc opamp.sub
TEXT -40 520 Left 0 !.ac oct 25 1 100000
