Version 4
SHEET 1 5316 848
WIRE 1488 -272 1424 -272
WIRE 1616 -272 1568 -272
WIRE 1680 -272 1616 -272
WIRE 1824 -272 1760 -272
WIRE -880 -256 -928 -256
WIRE -864 -256 -880 -256
WIRE -736 -256 -784 -256
WIRE -672 -256 -736 -256
WIRE -528 -256 -592 -256
WIRE 1424 -224 1424 -272
WIRE -928 -208 -928 -256
WIRE 1424 -144 1424 -160
WIRE -928 -128 -928 -144
WIRE -880 -128 -880 -256
WIRE -880 -128 -928 -128
WIRE -736 -112 -736 -256
WIRE -672 -112 -736 -112
WIRE -528 -112 -528 -256
WIRE -528 -112 -608 -112
WIRE 1424 -112 1424 -144
WIRE -928 -96 -928 -128
WIRE -528 0 -528 -112
WIRE -528 0 -608 0
WIRE 1056 16 976 16
WIRE 1184 16 1056 16
WIRE 1424 16 1248 16
WIRE -1200 32 -1232 32
WIRE -1088 32 -1200 32
WIRE -928 32 -1024 32
WIRE -128 32 -160 32
WIRE 96 32 -128 32
WIRE 320 32 176 32
WIRE 480 32 384 32
WIRE 480 80 480 32
WIRE -528 112 -528 0
WIRE -528 112 -608 112
WIRE -1520 208 -1520 128
WIRE 480 208 480 160
WIRE 1424 208 1424 16
WIRE -1664 224 -1664 128
WIRE -928 224 -928 32
WIRE 1616 224 1616 -272
WIRE 1680 224 1616 224
WIRE -736 240 -736 -112
WIRE -672 240 -736 240
WIRE 1792 240 1744 240
WIRE 1824 240 1824 -272
WIRE 1824 240 1792 240
WIRE 2016 240 1824 240
WIRE -544 256 -608 256
WIRE -528 256 -528 112
WIRE -528 256 -544 256
WIRE -512 256 -528 256
WIRE 1568 256 1456 256
WIRE 1680 256 1568 256
WIRE 2016 256 2016 240
WIRE -672 272 -896 272
WIRE -1664 336 -1664 304
WIRE -1520 336 -1520 288
WIRE -1520 336 -1664 336
WIRE 1968 352 1792 352
WIRE 2016 352 2016 336
WIRE 2016 352 1968 352
WIRE 2064 352 2016 352
WIRE 2080 352 2064 352
WIRE -1520 368 -1520 336
WIRE 1424 384 1424 304
WIRE -928 400 -928 320
WIRE 1424 400 1424 384
WIRE -928 416 -928 400
WIRE 1968 416 1968 352
WIRE 2080 416 2080 352
WIRE 1792 560 1792 480
WIRE 1968 560 1968 480
WIRE 1968 560 1792 560
WIRE 2016 560 1968 560
WIRE 2080 560 2080 480
WIRE 2080 560 2016 560
WIRE 2016 688 2016 560
WIRE 2016 720 2016 688
FLAG -1520 368 0
FLAG -928 -96 v45
FLAG 1424 -144 v45
FLAG -928 400 v45
FLAG 1424 384 v45
FLAG 2016 688 v45
FLAG 1568 256 vi
FLAG 1056 16 input
FLAG -1200 32 input
FLAG -544 256 a
FLAG 2064 352 b
FLAG 1792 240 n
FLAG -1664 128 v45
FLAG -1520 128 input
FLAG -128 32 input
FLAG 480 208 0
SYMBOL cap -1024 16 R90
WINDOW 0 0 32 VBottom 2
WINDOW 3 32 32 VTop 2
SYMATTR InstName C1
SYMATTR Value 0.01µ
SYMBOL Pot&Sw\\pot2 -944 208 R0
SYMATTR InstName U1
SYMATTR Value Rt=100K
SYMBOL diode -608 96 R90
WINDOW 0 0 32 VBottom 2
WINDOW 3 32 32 VTop 2
SYMATTR InstName D1
SYMATTR Value 1N4148
SYMBOL diode -672 16 R270
WINDOW 0 32 32 VTop 2
WINDOW 3 0 32 VBottom 2
SYMATTR InstName D2
SYMATTR Value 1N4148
SYMBOL cap -608 -128 R90
WINDOW 0 0 32 VBottom 2
WINDOW 3 32 32 VTop 2
SYMATTR InstName C2
SYMATTR Value 100p
SYMBOL res -576 -272 R90
WINDOW 0 8 56 VBottom 2
WINDOW 3 24 56 VTop 2
SYMATTR InstName R3
SYMATTR Value 1000k
SYMBOL res -768 -272 R90
WINDOW 0 8 56 VBottom 2
WINDOW 3 24 56 VTop 2
SYMATTR InstName R4
SYMATTR Value 2200
SYMBOL cap -944 -208 R0
SYMATTR InstName C3
SYMATTR Value 2.2µ
SYMBOL Opamps\\opamp -640 192 R0
SYMATTR InstName U4
SYMBOL voltage -1520 192 R0
WINDOW 3 24 160 Left 2
WINDOW 123 24 132 Left 2
WINDOW 39 0 0 Left 2
SYMATTR Value SINE(0 0.3 500)
SYMATTR Value2 AC 0.3
SYMATTR InstName V2
SYMBOL cap 1248 0 R90
WINDOW 0 0 32 VBottom 2
WINDOW 3 32 32 VTop 2
SYMATTR InstName C5
SYMATTR Value 0.01µ
SYMBOL Pot&Sw\\pot2 1408 192 R0
SYMATTR InstName U5
SYMATTR Value Rt=100K
SYMBOL res 1776 -288 R90
WINDOW 0 8 56 VBottom 2
WINDOW 3 24 56 VTop 2
SYMATTR InstName R8
SYMATTR Value 1000k
SYMBOL res 1584 -288 R90
WINDOW 0 8 56 VBottom 2
WINDOW 3 24 56 VTop 2
SYMATTR InstName R9
SYMATTR Value 2200
SYMBOL Opamps\\opamp 1712 176 R0
SYMATTR InstName U8
SYMBOL cap 1408 -224 R0
SYMATTR InstName C6
SYMATTR Value 2.2µ
SYMBOL diode 1984 480 R180
WINDOW 0 24 72 Left 2
WINDOW 3 24 0 Left 2
SYMATTR InstName D5
SYMATTR Value 1N4148
SYMBOL diode 2064 416 R0
SYMATTR InstName D6
SYMATTR Value 1N4148
SYMBOL res 2032 352 R180
WINDOW 0 36 76 Left 2
WINDOW 3 36 40 Left 2
SYMATTR InstName R11
SYMATTR Value 1000k
SYMBOL cap 1776 416 R0
SYMATTR InstName C15
SYMATTR Value 100p
SYMBOL voltage -1664 208 R0
WINDOW 123 0 0 Left 2
WINDOW 39 0 0 Left 2
SYMATTR InstName V1
SYMATTR Value 4.5
SYMBOL cap 384 16 R90
WINDOW 0 0 32 VBottom 2
WINDOW 3 32 32 VTop 2
SYMATTR InstName C4
SYMATTR Value 0.22µ
SYMBOL res 192 16 R90
WINDOW 0 8 56 VBottom 2
WINDOW 3 24 56 VTop 2
SYMATTR InstName R1
SYMATTR Value 10k
SYMBOL res 464 64 R0
SYMATTR InstName R2
SYMATTR Value 25k
TEXT -1960 808 Left 2 !;tran 0 0.11 0.1 0.00001
TEXT -1968 832 Left 2 !.ac oct 100 1 200000
TEXT 800 240 Left 2 ;(V(b)+(V(n)-4.5)*0.0022)
